F95    = gfortran
FFLAGS = -c -ffree-line-length-512 #-Wall -std=f95
#F90    = ifort
#FFLAGS = -c -checkall
#MODPATH = ../../mymodules

OBJS = acc.o cst.o metaEosT0Type.o metaEosT0.o polyEosT0Type.o polyEosT0.o metaEosMain.o 

metaEos.e: $(OBJS)
	$(F95) -o metaEos.e $(OBJS)

#%.o: $(MODPATH)/%.f95
#	$(F95) $(FFLAGS) $<

%.o: %.f95
	$(F95) $(FFLAGS) $<

clean:
	rm *.o *.mod

cleanall:
	rm *.o *.mod *.e
